Circuit: * C:\Users\agk99\Documents\GitHub\Kicad\Multimeter\Multimeter_Base\front_end_ohms_alt3.asc

Direct Newton iteration failed to find .op point.  (Use ".option noopiter" to skip.)
Starting Gmin stepping
Gmin = 10
Gmin = 1.07374
Gmin = 0.115292
Gmin = 0.0123794
Gmin = 0.00132923
Gmin = 0.000142725
Gmin = 1.5325e-005
Gmin = 1.6455e-006
Gmin = 1.76685e-007
Gmin = 1.89714e-008
Gmin = 2.03704e-009
Gmin = 2.18725e-010
Gmin = 2.34854e-011
Gmin = 2.52173e-012
Gmin = 2.70769e-013
Gmin = 0
Gmin stepping succeeded in finding the operating point.

Heightened Def Con from 1.00196e-009 to 3.00196e-009



Date: Fri May 17 00:38:55 2019
Total elapsed time: 0.157 seconds.

tnom = 27
temp = 27
method = modified trap
totiter = 3554
traniter = 2917
tranpoints = 1041
accept = 1027
rejected = 15
matrix size = 96
fillins = 68
solver = Normal
Thread vector: 8.5/4.8[2] 2.8/2.2[2] 2.8/2.5[2] 0.3/0.9[1]  2592/500
Matrix Compiler1: 9.37 KB object code size  1.6/0.7/[0.3]
Matrix Compiler2: 9.71 KB object code size  1.0/1.2/[0.4]

