Circuit: * C:\Users\agk99\Documents\GitHub\Kicad\Multimeter\Multimeter_Base\front_end_ohms_alt1.asc

WARNING: Less than two connections to node VMM_5V0.  This node is used by V3.
WARNING: Less than two connections to node VDD_MID.  This node is used by V4.
Instance "m:u1:6": Length shorter than recommended for a level 2 MOSFET.
Instance "m:u1:5": Length shorter than recommended for a level 2 MOSFET.
Instance "m:u1:4": Length shorter than recommended for a level 2 MOSFET.
Instance "m:u1:3": Length shorter than recommended for a level 2 MOSFET.
Instance "m:u1:2": Length shorter than recommended for a level 2 MOSFET.
Instance "m:u1:1": Length shorter than recommended for a level 2 MOSFET.
Direct Newton iteration failed to find .op point.  (Use ".option noopiter" to skip.)
Starting Gmin stepping
Gmin = 10
Gmin = 1.07374
Gmin = 0.115292
Gmin = 0.0123794
Gmin = 0.00132923
vernier = 0.5
vernier = 0.25
vernier = 0.125
vernier = 0.0625
Gmin = 0.00100083
vernier = 0.03125
vernier = 0.015625
vernier = 0.0078125
vernier = 0.00390625
vernier = 0.00195313
Gmin = 0.00100083
vernier = 0.000976563
vernier = 0.000488281
Gmin = 0
Gmin stepping failed

Starting source stepping with srcstepmethod=0
Source Step = 3.0303%
Source Step = 25.7576%
Source Step = 26.379%
Source Step = 26.4086%
Source Step = 26.4382%
Source Step = 26.4678%
Source Step = 26.4974%
Source Step = 26.527%
vernier = 0.00146484
Source Step = 26.5684%
Source Step = 26.6128%
Source Step = 26.6572%
Source Step = 26.7016%
Source Step = 26.746%
vernier = 0.00219727
Source Step = 26.8059%
Source Step = 26.8725%
Source Step = 26.9391%
Source Step = 27.0057%
Source Step = 27.0722%
vernier = 0.0032959
Source Step = 27.1588%
Source Step = 27.2587%
Source Step = 27.3585%
Source Step = 27.4584%
Source Step = 27.5583%
vernier = 0.00494385
Source Step = 27.6831%
Source Step = 27.833%
Source Step = 27.9828%
Source Step = 28.1326%
Source Step = 28.2824%
vernier = 0.00741577
Source Step = 28.4622%
Source Step = 28.6869%
Source Step = 28.9116%
Source Step = 29.1363%
Source Step = 29.3611%
vernier = 0.0111237
Source Step = 29.6195%
Source Step = 29.9566%
Source Step = 30.2936%
Source Step = 30.6307%
Source Step = 30.9678%
vernier = 0.0166855
Source Step = 31.3386%
Source Step = 31.8442%
Source Step = 32.3498%
Source Step = 32.8555%
Source Step = 33.3611%
vernier = 0.0250282
Source Step = 33.892%
Source Step = 34.6504%
Source Step = 35.4088%
Source Step = 36.1673%
Source Step = 36.9257%
Source Step = 37.6841%
vernier = 0.0375423
Source Step = 38.8218%
Source Step = 39.9594%
Source Step = 41.0971%
Source Step = 42.2347%
Source Step = 43.3724%
vernier = 0.0563135
Source Step = 45.022%
Source Step = 46.7284%
Source Step = 48.4349%
Source Step = 50.1414%
Source Step = 51.8478%
vernier = 0.0844703
Source Step = 54.2369%
Source Step = 56.7966%
Source Step = 59.3563%
Source Step = 61.916%
Source Step = 64.4757%
vernier = 0.126705
Source Step = 67.9313%
Source Step = 71.7709%
Source Step = 75.6104%
Source Step = 79.45%
Source Step = 83.2895%
vernier = 0.190058
Source Step = 88.281%
Source Step = 94.0403%
Source Step = 99.7996%
Source stepping succeeded in finding the operating point.


Date: Wed May 15 21:40:18 2019
Total elapsed time: 0.213 seconds.

tnom = 27
temp = 27
method = modified trap
totiter = 6627
traniter = 2108
tranpoints = 1055
accept = 1055
rejected = 0
matrix size = 55
fillins = 56
solver = Normal
Matrix Compiler1: 5.12 KB object code size  0.8/0.4/[0.2]
Matrix Compiler2: 5.47 KB object code size  0.4/0.6/[0.2]

